@<TRIPOS>MOLECULE
MOL
  270   282     1     0     0
SMALL
resp


@<TRIPOS>ATOM
      1 C1          -5.1040    -2.7650     2.3090 cp         1 MOL       0.874057
      2 N1          -5.7230    -1.6340     1.9350 nb         1 MOL      -0.790863
      3 C2          -6.0240    -1.5340     0.6310 cp         1 MOL       0.874057
      4 N2          -5.7400    -2.4770    -0.2810 nb         1 MOL      -0.790863
      5 C3          -5.1210    -3.5750     0.1830 cp         1 MOL       0.874057
      6 N3          -4.7810    -3.7600     1.4680 nb         1 MOL      -0.790863
      7 C4          -4.7070    -2.9050     3.7500 cp         1 MOL      -0.082096
      8 C5          -4.0270    -4.0420     4.2130 ca         1 MOL      -0.052923
      9 C6          -3.6160    -4.1070     5.5430 ca         1 MOL      -0.121652
     10 N4          -3.8430    -3.1110     6.4270 nb         1 MOL       0.102046
     11 C7          -4.5320    -2.0310     5.9980 ca         1 MOL      -0.121652
     12 C8          -4.9760    -1.8940     4.6840 ca         1 MOL      -0.052923
     13 H1          -3.8200    -4.8720     3.5480 ha         1 MOL       0.153039
     14 H2          -3.0950    -4.9820     5.9180 h4         1 MOL       0.180418
     15 H3          -4.7380    -1.2610     6.7340 h4         1 MOL       0.180418
     16 H4          -5.5260    -1.0070     4.3960 ha         1 MOL       0.153039
     17 C9          -6.6770    -0.2690     0.1540 cp         1 MOL      -0.082096
     18 C10         -6.9720     0.7780     1.0390 ca         1 MOL      -0.052923
     19 C11         -7.5170     1.9640     0.5490 ca         1 MOL      -0.121652
     20 N5          -7.7800     2.1590    -0.7620 nb         1 MOL       0.102046
     21 C12         -7.5360     1.1400    -1.6130 ca         1 MOL      -0.121652
     22 C13         -6.9920    -0.0750    -1.1980 ca         1 MOL      -0.052923
     23 H5          -6.7840     0.6760     2.1010 ha         1 MOL       0.153039
     24 H6          -7.7570     2.7810     1.2210 h4         1 MOL       0.180418
     25 H7          -7.7910     1.3040    -2.6550 h4         1 MOL       0.180418
     26 H8          -6.8190    -0.8590    -1.9250 ha         1 MOL       0.153039
     27 C14         -4.7420    -4.6390    -0.8050 cp         1 MOL      -0.082096
     28 C15         -5.0310    -4.5040    -2.1710 ca         1 MOL      -0.052923
     29 C16         -4.6050    -5.4830    -3.0680 ca         1 MOL      -0.121652
     30 N6          -3.9140    -6.5770    -2.6800 nb         1 MOL       0.102046
     31 C17         -3.6690    -6.7340    -1.3610 ca         1 MOL      -0.121652
     32 C18         -4.0620    -5.7980    -0.4050 ca         1 MOL      -0.052923
     33 H9          -5.5830    -3.6470    -2.5380 ha         1 MOL       0.153039
     34 H10         -4.8250    -5.3960    -4.1270 h4         1 MOL       0.180418
     35 H11         -3.1470    -7.6390    -1.0660 h4         1 MOL       0.180418
     36 H12         -3.8400    -5.9770     0.6400 ha         1 MOL       0.153039
     37 C19          4.1220    -0.4710     4.6730 cp         1 MOL       0.874057
     38 N7           4.2080     0.8630     4.5510 nb         1 MOL      -0.790863
     39 C20          3.2190     1.5690     5.1200 cp         1 MOL       0.874057
     40 N8           2.1830     1.0210     5.7750 nb         1 MOL      -0.790863
     41 C21          2.1790    -0.3200     5.8470 cp         1 MOL       0.874057
     42 N9           3.1240    -1.1060     5.3090 nb         1 MOL      -0.790863
     43 C22          5.1800    -1.3070     4.0150 cp         1 MOL      -0.082096
     44 C23          5.1410    -2.7080     4.0660 ca         1 MOL      -0.052923
     45 C24          6.1050    -3.4520     3.3870 ca         1 MOL      -0.121652
     46 N10          7.0960    -2.8800     2.6680 nb         1 MOL       0.102046
     47 C25          7.1630    -1.5310     2.6480 ca         1 MOL      -0.121652
     48 C26          6.2360    -0.7200     3.3010 ca         1 MOL      -0.052923
     49 H13          4.3700    -3.2200     4.6290 ha         1 MOL       0.153039
     50 H14          6.0920    -4.5370     3.4220 h4         1 MOL       0.180418
     51 H15          7.9890    -1.0930     2.0970 h4         1 MOL       0.180418
     52 H16          6.3400     0.3570     3.2530 ha         1 MOL       0.153039
     53 C27          3.2460     3.0630     4.9740 cp         1 MOL      -0.082096
     54 C28          4.2760     3.7090     4.2740 ca         1 MOL      -0.052923
     55 C29          4.2330     5.0920     4.1030 ca         1 MOL      -0.121652
     56 N11          3.2300     5.8570     4.5870 nb         1 MOL       0.102046
     57 C30          2.2560     5.2450     5.2960 ca         1 MOL      -0.121652
     58 C31          2.2300     3.8680     5.5090 ca         1 MOL      -0.052923
     59 H17          5.1060     3.1460     3.8660 ha         1 MOL       0.153039
     60 H18          5.0240     5.6080     3.5690 h4         1 MOL       0.180418
     61 H19          1.4810     5.8830     5.7090 h4         1 MOL       0.180418
     62 H20          1.4260     3.4320     6.0890 ha         1 MOL       0.153039
     63 C32          1.0190    -0.9830     6.5310 cp         1 MOL      -0.082096
     64 C33         -0.0280    -0.2320     7.0870 ca         1 MOL      -0.052923
     65 C34         -1.1200    -0.8860     7.6550 ca         1 MOL      -0.121652
     66 N12         -1.2240    -2.2320     7.6990 nb         1 MOL       0.102046
     67 C35         -0.2010    -2.9610     7.2020 ca         1 MOL      -0.121652
     68 C36          0.9230    -2.3800     6.6180 ca         1 MOL      -0.052923
     69 H21          0.0040     0.8500     7.0820 ha         1 MOL       0.153039
     70 H22         -1.9350    -0.3190     8.0950 h4         1 MOL       0.180418
     71 H23         -0.2870    -4.0390     7.2830 h4         1 MOL       0.180418
     72 H24          1.7150    -3.0130     6.2370 ha         1 MOL       0.153039
     73 C37          3.1410    -2.2500    -4.9110 cp         1 MOL       0.874057
     74 N13          4.1420    -2.4040    -4.0300 nb         1 MOL      -0.790863
     75 C38          4.0600    -3.4810    -3.2320 cp         1 MOL       0.874057
     76 N14          3.0570    -4.3720    -3.2710 nb         1 MOL      -0.790863
     77 C39          2.1000    -4.1380    -4.1840 cp         1 MOL       0.874057
     78 N15          2.0990    -3.0890    -5.0210 nb         1 MOL      -0.790863
     79 C40          3.1630    -1.0370    -5.7950 cp         1 MOL      -0.082096
     80 C41          2.1360    -0.7860    -6.7170 ca         1 MOL      -0.052923
     81 C42          2.1580     0.3840    -7.4740 ca         1 MOL      -0.121652
     82 N16          3.1380     1.3080    -7.3630 nb         1 MOL       0.102046
     83 C43          4.1510     1.0530    -6.5060 ca         1 MOL      -0.121652
     84 C44          4.1990    -0.0940    -5.7160 ca         1 MOL      -0.052923
     85 H25          1.3260    -1.4930    -6.8490 ha         1 MOL       0.153039
     86 H26          1.3740     0.5900    -8.1960 h4         1 MOL       0.180418
     87 H27          4.9470     1.7890    -6.4610 h4         1 MOL       0.180418
     88 H28          5.0380    -0.2480    -5.0480 ha         1 MOL       0.153039
     89 C45          5.1320    -3.6740    -2.1990 cp         1 MOL      -0.082096
     90 C46          6.1940    -2.7670    -2.0710 ca         1 MOL      -0.052923
     91 C47          7.1340    -2.9430    -1.0570 ca         1 MOL      -0.121652
     92 N17          7.0730    -3.9630    -0.1740 nb         1 MOL       0.102046
     93 C48          6.0760    -4.8630    -0.3170 ca         1 MOL      -0.121652
     94 C49          5.0990    -4.7540    -1.3050 ca         1 MOL      -0.052923
     95 H29          6.2940    -1.9310    -2.7530 ha         1 MOL       0.153039
     96 H30          7.9650    -2.2530    -0.9480 h4         1 MOL       0.180418
     97 H31          6.0680    -5.6960     0.3790 h4         1 MOL       0.180418
     98 H32          4.3230    -5.5070    -1.3750 ha         1 MOL       0.153039
     99 C50          0.9340    -5.0820    -4.2380 cp         1 MOL      -0.082096
    100 C51          0.8450    -6.1820    -3.3720 ca         1 MOL      -0.052923
    101 C52         -0.2850    -6.9980    -3.4070 ca         1 MOL      -0.121652
    102 N18         -1.3180    -6.7800    -4.2500 nb         1 MOL       0.102046
    103 C53         -1.2190    -5.7470    -5.1140 ca         1 MOL      -0.121652
    104 C54         -0.1230    -4.8860    -5.1390 ca         1 MOL      -0.052923
    105 H33          1.6440    -6.4060    -2.6760 ha         1 MOL       0.153039
    106 H34         -0.3670    -7.8570    -2.7480 h4         1 MOL       0.180418
    107 H35         -2.0420    -5.6120    -5.8080 h4         1 MOL       0.180418
    108 H36         -0.0960    -4.0750    -5.8550 ha         1 MOL       0.153039
    109 C55         -2.1580     5.4850    -2.0710 cp         1 MOL       0.874057
    110 N19         -1.5260     5.9860    -0.9980 nb         1 MOL      -0.790863
    111 C56         -0.1980     6.1430    -1.1190 cp         1 MOL       0.874057
    112 N20          0.4990     5.8280    -2.2220 nb         1 MOL      -0.790863
    113 C57         -0.2150     5.3330    -3.2460 cp         1 MOL       0.874057
    114 N21         -1.5430     5.1420    -3.2140 nb         1 MOL      -0.790863
    115 C58         -3.6370     5.2490    -1.9700 cp         1 MOL      -0.082096
    116 C59         -4.3630     4.6960    -3.0350 ca         1 MOL      -0.052923
    117 C60         -5.7220     4.4300    -2.8800 ca         1 MOL      -0.121652
    118 N22         -6.3900     4.6830    -1.7330 nb         1 MOL       0.102046
    119 C61         -5.7050     5.2530    -0.7170 ca         1 MOL      -0.121652
    120 C62         -4.3450     5.5480    -0.7970 ca         1 MOL      -0.052923
    121 H37         -3.8790     4.4750    -3.9790 ha         1 MOL       0.153039
    122 H38         -6.2990     4.0090    -3.6970 h4         1 MOL       0.180418
    123 H39         -6.2690     5.4840     0.1810 h4         1 MOL       0.180418
    124 H40         -3.8480     6.0070     0.0490 ha         1 MOL       0.153039
    125 C63          0.5600     6.6580     0.0690 cp         1 MOL      -0.082096
    126 C64         -0.0910     6.9760     1.2700 ca         1 MOL      -0.052923
    127 C65          0.6550     7.3880     2.3730 ca         1 MOL      -0.121652
    128 N23          2.0010     7.5010     2.3430 nb         1 MOL       0.102046
    129 C66          2.6310     7.2360     1.1780 ca         1 MOL      -0.121652
    130 C67          1.9530     6.8180     0.0330 ca         1 MOL      -0.052923
    131 H41         -1.1690     6.9060     1.3500 ha         1 MOL       0.153039
    132 H42          0.1650     7.6440     3.3070 h4         1 MOL       0.180418
    133 H43          3.7070     7.3700     1.1640 h4         1 MOL       0.180418
    134 H44          2.5100     6.6210    -0.8750 ha         1 MOL       0.153039
    135 C68          0.5250     4.9240    -4.4860 cp         1 MOL      -0.082096
    136 C69          1.9180     5.0590    -4.5830 ca         1 MOL      -0.052923
    137 C70          2.5780     4.6070    -5.7250 ca         1 MOL      -0.121652
    138 N24          1.9310     4.0340    -6.7640 nb         1 MOL       0.102046
    139 C71          0.5850     3.9380    -6.6940 ca         1 MOL      -0.121652
    140 C72         -0.1440     4.3670    -5.5860 ca         1 MOL      -0.052923
    141 H45          2.4880     5.5130    -3.7810 ha         1 MOL       0.153039
    142 H46          3.6540     4.7090    -5.8180 h4         1 MOL       0.180418
    143 H47          0.0820     3.5110    -7.5550 h4         1 MOL       0.180418
    144 H48         -1.2230     4.2680    -5.5850 ha         1 MOL       0.153039
    145 Pd1         -3.0370    -3.2010     8.4640 Pd         1 MOL      -0.114570
    146 N25         -4.6870    -4.1210     9.3280 nb         1 MOL       0.104424
    147 C73         -5.8130    -4.4760     8.6790 ca         1 MOL      -0.201807
    148 C74         -6.8790    -5.0910     9.3270 ca         1 MOL      -0.037700
    149 C75         -6.7790    -5.3470    10.6940 ca         1 MOL       0.042935
    150 C76         -5.6120    -4.9790    11.3660 ca         1 MOL      -0.101640
    151 C77         -4.5700    -4.3650    10.6690 cp         1 MOL       0.078417
    152 H49         -5.8530    -4.2600     7.6190 h4         1 MOL       0.230527
    153 H50         -7.7680    -5.3600     8.7650 ha         1 MOL       0.164026
    154 H51         -7.5910    -5.8250    11.2340 ha         1 MOL       0.176769
    155 H52         -5.5230    -5.1740    12.4290 ha         1 MOL       0.180429
    156 C78         -3.3060    -3.9410    11.2830 cp         1 MOL       0.078417
    157 C79         -2.9990    -4.1030    12.6360 ca         1 MOL      -0.101640
    158 C80         -1.7690    -3.6670    13.1290 ca         1 MOL       0.042935
    159 C81         -0.8620    -3.0730    12.2500 ca         1 MOL      -0.037700
    160 C82         -1.2160    -2.9340    10.9120 ca         1 MOL      -0.201807
    161 N26         -2.4040    -3.3560    10.4370 nb         1 MOL       0.104424
    162 H53         -3.7110    -4.5660    13.3090 ha         1 MOL       0.180429
    163 H54         -1.5270    -3.7920    14.1800 ha         1 MOL       0.176769
    164 H55          0.1050    -2.7190    12.5910 ha         1 MOL       0.164026
    165 H56         -0.5410    -2.4790    10.2000 h4         1 MOL       0.230527
    166 Pd2          8.4900    -4.1000     1.4950 Pd         1 MOL      -0.114570
    167 N27          9.9230    -4.3150     2.9840 nb         1 MOL       0.104424
    168 C83          9.8450    -3.7940     4.2240 ca         1 MOL      -0.201807
    169 C84         10.8480    -3.9810     5.1700 ca         1 MOL      -0.037700
    170 C85         11.9700    -4.7330     4.8220 ca         1 MOL       0.042935
    171 C86         12.0500    -5.2720     3.5370 ca         1 MOL      -0.101640
    172 C87         11.0160    -5.0550     2.6240 cp         1 MOL       0.078417
    173 H57          8.9600    -3.2180     4.4560 h4         1 MOL       0.230527
    174 H58         10.7450    -3.5440     6.1570 ha         1 MOL       0.164026
    175 H59         12.7730    -4.9000     5.5340 ha         1 MOL       0.176769
    176 H60         12.9170    -5.8580     3.2560 ha         1 MOL       0.180429
    177 C88         11.0050    -5.5780     1.2530 cp         1 MOL       0.078417
    178 C89         12.0280    -6.3520     0.7020 ca         1 MOL      -0.101640
    179 C90         11.9280    -6.8050    -0.6140 ca         1 MOL       0.042935
    180 C91         10.7960    -6.4700    -1.3590 ca         1 MOL      -0.037700
    181 C92          9.8060    -5.6960    -0.7640 ca         1 MOL      -0.201807
    182 N28          9.9030    -5.2590     0.5070 nb         1 MOL       0.104424
    183 H61         12.9020    -6.6060     1.2900 ha         1 MOL       0.180429
    184 H62         12.7220    -7.4080    -1.0460 ha         1 MOL       0.176769
    185 H63         10.6770    -6.8010    -2.3850 ha         1 MOL       0.164026
    186 H64          8.9140    -5.4150    -1.3080 h4         1 MOL       0.230527
    187 Pd3          3.1340     8.0040     4.1520 Pd         1 MOL      -0.114570
    188 N29          4.1940     8.6280     5.8250 nb         1 MOL       0.104424
    189 C93          4.7050     7.8200     6.7740 ca         1 MOL      -0.201807
    190 C94          5.4060     8.3130     7.8700 ca         1 MOL      -0.037700
    191 C95          5.5850     9.6920     7.9890 ca         1 MOL       0.042935
    192 C96          5.0560    10.5280     7.0060 ca         1 MOL      -0.101640
    193 C97          4.3600     9.9830     5.9250 cp         1 MOL       0.078417
    194 H65          4.5450     6.7570     6.6460 h4         1 MOL       0.230527
    195 H66          5.8010     7.6260     8.6100 ha         1 MOL       0.164026
    196 H67          6.1270    10.1130     8.8310 ha         1 MOL       0.176769
    197 H68          5.1890    11.6010     7.0880 ha         1 MOL       0.180429
    198 C98          3.7670    10.7770     4.8430 cp         1 MOL       0.078417
    199 C99          3.8300    12.1690     4.7680 ca         1 MOL      -0.101640
    200 C100         3.2340    12.8370     3.6980 ca         1 MOL       0.042935
    201 C101         2.5820    12.0920     2.7150 ca         1 MOL      -0.037700
    202 C102         2.5470    10.7060     2.8360 ca         1 MOL      -0.201807
    203 N30          3.1230    10.0620     3.8700 nb         1 MOL       0.104424
    204 H69          4.3400    12.7380     5.5370 ha         1 MOL       0.180429
    205 H70          3.2810    13.9210     3.6360 ha         1 MOL       0.176769
    206 H71          2.1050    12.5700     1.8660 ha         1 MOL       0.164026
    207 H72          2.0510    10.0930     2.0950 h4         1 MOL       0.230527
    208 Pd4         -3.1350    -8.0030    -4.1520 Pd         1 MOL      -0.114570
    209 N31         -4.7920    -9.2570    -4.1630 nb         1 MOL       0.104424
    210 C103        -5.9070    -9.0850    -3.4270 ca         1 MOL      -0.201807
    211 C104        -6.9790    -9.9700    -3.4880 ca         1 MOL      -0.037700
    212 C105        -6.8950   -11.0710    -4.3400 ca         1 MOL       0.042935
    213 C106        -5.7400   -11.2480    -5.1020 ca         1 MOL      -0.101640
    214 C107        -4.6920   -10.3310    -5.0040 cp         1 MOL       0.078417
    215 H73         -5.9340    -8.2190    -2.7780 h4         1 MOL       0.230527
    216 H74         -7.8580    -9.7930    -2.8770 ha         1 MOL       0.164026
    217 H75         -7.7120   -11.7830    -4.4140 ha         1 MOL       0.176769
    218 H76         -5.6630   -12.1010    -5.7670 ha         1 MOL       0.180429
    219 C108        -3.4390   -10.4290    -5.7620 cp         1 MOL       0.078417
    220 C109        -3.1490   -11.4510    -6.6690 ca         1 MOL      -0.101640
    221 C110        -1.9280   -11.4590    -7.3440 ca         1 MOL       0.042935
    222 C111        -1.0130   -10.4350    -7.0960 ca         1 MOL      -0.037700
    223 C112        -1.3490    -9.4400    -6.1830 ca         1 MOL      -0.201807
    224 N32         -2.5290    -9.4330    -5.5320 nb         1 MOL       0.104424
    225 H77         -3.8680   -12.2410    -6.8530 ha         1 MOL       0.180429
    226 H78         -1.7000   -12.2520    -8.0500 ha         1 MOL       0.176769
    227 H79         -0.0520   -10.4020    -7.5980 ha         1 MOL       0.164026
    228 H80         -0.6670    -8.6300    -5.9640 h4         1 MOL       0.230527
    229 Pd5         -8.4900     4.1000    -1.4950 Pd         1 MOL      -0.114570
    230 N33        -10.5190     3.6880    -1.3230 nb         1 MOL       0.104424
    231 C113       -11.0460     2.5300    -0.8780 ca         1 MOL      -0.201807
    232 C114       -12.4200     2.3270    -0.7910 ca         1 MOL      -0.037700
    233 C115       -13.2780     3.3570    -1.1770 ca         1 MOL       0.042935
    234 C116       -12.7320     4.5550    -1.6370 ca         1 MOL      -0.101640
    235 C117       -11.3460     4.7090    -1.7060 cp         1 MOL       0.078417
    236 H81        -10.3480     1.7570    -0.5880 h4         1 MOL       0.230527
    237 H82        -12.8020     1.3790    -0.4270 ha         1 MOL       0.164026
    238 H83        -14.3560     3.2340    -1.1220 ha         1 MOL       0.176769
    239 H84        -13.3890     5.3620    -1.9400 ha         1 MOL       0.180429
    240 C118       -10.6740     5.9260    -2.1750 cp         1 MOL       0.078417
    241 C119       -11.3440     7.0730    -2.6070 ca         1 MOL      -0.101640
    242 C120       -10.6180     8.1850    -3.0350 ca         1 MOL       0.042935
    243 C121        -9.2240     8.1260    -3.0230 ca         1 MOL      -0.037700
    244 C122        -8.6050     6.9610    -2.5830 ca         1 MOL      -0.201807
    245 N34         -9.3070     5.8880    -2.1700 nb         1 MOL       0.104424
    246 H85        -12.4270     7.1070    -2.6120 ha         1 MOL       0.180429
    247 H86        -11.1360     9.0780    -3.3720 ha         1 MOL       0.176769
    248 H87         -8.6200     8.9670    -3.3470 ha         1 MOL       0.164026
    249 H88         -7.5260     6.8770    -2.5580 h4         1 MOL       0.230527
    250 Pd6          3.0370     3.2010    -8.4640 Pd         1 MOL      -0.114570
    251 N35          4.0730     2.5500   -10.1430 nb         1 MOL       0.104424
    252 C123         4.5760     1.3130   -10.3200 ca         1 MOL      -0.201807
    253 C124         5.2600     0.9500   -11.4760 ca         1 MOL      -0.037700
    254 C125         5.4320     1.9000   -12.4830 ca         1 MOL       0.042935
    255 C126         4.9120     3.1810   -12.2980 ca         1 MOL      -0.101640
    256 C127         4.2320     3.4950   -11.1200 cp         1 MOL       0.078417
    257 H89          4.4220     0.6050    -9.5170 h4         1 MOL       0.230527
    258 H90          5.6480    -0.0580   -11.5770 ha         1 MOL       0.164026
    259 H91          5.9610     1.6520   -13.3990 ha         1 MOL       0.176769
    260 H92          5.0390     3.9270   -13.0740 ha         1 MOL       0.180429
    261 C128         3.6500     4.8110   -10.8310 cp         1 MOL       0.078417
    262 C129         3.7070     5.9010   -11.7020 ca         1 MOL      -0.101640
    263 C130         3.1220     7.1140   -11.3390 ca         1 MOL       0.042935
    264 C131         2.4860     7.2140   -10.1010 ca         1 MOL      -0.037700
    265 C132         2.4560     6.0980    -9.2700 ca         1 MOL      -0.201807
    266 N36          3.0210     4.9270    -9.6210 nb         1 MOL       0.104424
    267 H93          4.2030     5.8120   -12.6610 ha         1 MOL       0.180429
    268 H94          3.1650     7.9640   -12.0140 ha         1 MOL       0.176769
    269 H95          2.0180     8.1380    -9.7780 ha         1 MOL       0.164026
    270 H96          1.9730     6.1350    -8.3030 h4         1 MOL       0.230527
@<TRIPOS>BOND
     1     1     2 ar  
     2     1     6 ar  
     3     1     7 1   
     4     2     3 ar  
     5     3     4 ar  
     6     3    17 1   
     7     4     5 ar  
     8     5     6 ar  
     9     5    27 1   
    10     7     8 ar  
    11     7    12 ar  
    12     8     9 ar  
    13     8    13 1   
    14     9    10 ar  
    15     9    14 1   
    16    10    11 ar  
    17    11    12 ar  
    18    11    15 1   
    19    12    16 1   
    20    17    18 ar  
    21    17    22 ar  
    22    18    19 ar  
    23    18    23 1   
    24    19    20 ar  
    25    19    24 1   
    26    20    21 ar  
    27    21    22 ar  
    28    21    25 1   
    29    22    26 1   
    30    27    28 ar  
    31    27    32 ar  
    32    28    29 ar  
    33    28    33 1   
    34    29    30 ar  
    35    29    34 1   
    36    30    31 ar  
    37    31    32 ar  
    38    31    35 1   
    39    32    36 1   
    40    37    38 ar  
    41    37    42 ar  
    42    37    43 1   
    43    38    39 ar  
    44    39    40 ar  
    45    39    53 1   
    46    40    41 ar  
    47    41    42 ar  
    48    41    63 1   
    49    43    44 ar  
    50    43    48 ar  
    51    44    45 ar  
    52    44    49 1   
    53    45    46 ar  
    54    45    50 1   
    55    46    47 ar  
    56    47    48 ar  
    57    47    51 1   
    58    48    52 1   
    59    53    54 ar  
    60    53    58 ar  
    61    54    55 ar  
    62    54    59 1   
    63    55    56 ar  
    64    55    60 1   
    65    56    57 ar  
    66    57    58 ar  
    67    57    61 1   
    68    58    62 1   
    69    63    64 ar  
    70    63    68 ar  
    71    64    65 ar  
    72    64    69 1   
    73    65    66 ar  
    74    65    70 1   
    75    66    67 ar  
    76    67    68 ar  
    77    67    71 1   
    78    68    72 1   
    79    73    74 ar  
    80    73    78 ar  
    81    73    79 1   
    82    74    75 ar  
    83    75    76 ar  
    84    75    89 1   
    85    76    77 ar  
    86    77    78 ar  
    87    77    99 1   
    88    79    80 ar  
    89    79    84 ar  
    90    80    81 ar  
    91    80    85 1   
    92    81    82 ar  
    93    81    86 1   
    94    82    83 ar  
    95    83    84 ar  
    96    83    87 1   
    97    84    88 1   
    98    89    90 ar  
    99    89    94 ar  
   100    90    91 ar  
   101    90    95 1   
   102    91    92 ar  
   103    91    96 1   
   104    92    93 ar  
   105    93    94 ar  
   106    93    97 1   
   107    94    98 1   
   108    99   100 ar  
   109    99   104 ar  
   110   100   101 ar  
   111   100   105 1   
   112   101   102 ar  
   113   101   106 1   
   114   102   103 ar  
   115   103   104 ar  
   116   103   107 1   
   117   104   108 1   
   118   109   110 ar  
   119   109   114 ar  
   120   109   115 1   
   121   110   111 ar  
   122   111   112 ar  
   123   111   125 1   
   124   112   113 ar  
   125   113   114 ar  
   126   113   135 1   
   127   115   116 ar  
   128   115   120 ar  
   129   116   117 ar  
   130   116   121 1   
   131   117   118 ar  
   132   117   122 1   
   133   118   119 ar  
   134   119   120 ar  
   135   119   123 1   
   136   120   124 1   
   137   125   126 ar  
   138   125   130 ar  
   139   126   127 ar  
   140   126   131 1   
   141   127   128 ar  
   142   127   132 1   
   143   128   129 ar  
   144   129   130 ar  
   145   129   133 1   
   146   130   134 1   
   147   135   136 ar  
   148   135   140 ar  
   149   136   137 ar  
   150   136   141 1   
   151   137   138 ar  
   152   137   142 1   
   153   138   139 ar  
   154   139   140 ar  
   155   139   143 1   
   156   140   144 1   
   157   146   147 ar  
   158   146   151 ar  
   159   147   148 ar  
   160   147   152 1   
   161   148   149 ar  
   162   148   153 1   
   163   149   150 ar  
   164   149   154 1   
   165   150   151 ar  
   166   150   155 1   
   167   151   156 1   
   168   156   157 ar  
   169   156   161 ar  
   170   157   158 ar  
   171   157   162 1   
   172   158   159 ar  
   173   158   163 1   
   174   159   160 ar  
   175   159   164 1   
   176   160   161 ar  
   177   160   165 1   
   178   167   168 ar  
   179   167   172 ar  
   180   168   169 ar  
   181   168   173 1   
   182   169   170 ar  
   183   169   174 1   
   184   170   171 ar  
   185   170   175 1   
   186   171   172 ar  
   187   171   176 1   
   188   172   177 1   
   189   177   178 ar  
   190   177   182 ar  
   191   178   179 ar  
   192   178   183 1   
   193   179   180 ar  
   194   179   184 1   
   195   180   181 ar  
   196   180   185 1   
   197   181   182 ar  
   198   181   186 1   
   199   188   189 ar  
   200   188   193 ar  
   201   189   190 ar  
   202   189   194 1   
   203   190   191 ar  
   204   190   195 1   
   205   191   192 ar  
   206   191   196 1   
   207   192   193 ar  
   208   192   197 1   
   209   193   198 1   
   210   198   199 ar  
   211   198   203 ar  
   212   199   200 ar  
   213   199   204 1   
   214   200   201 ar  
   215   200   205 1   
   216   201   202 ar  
   217   201   206 1   
   218   202   203 ar  
   219   202   207 1   
   220   209   210 ar  
   221   209   214 ar  
   222   210   211 ar  
   223   210   215 1   
   224   211   212 ar  
   225   211   216 1   
   226   212   213 ar  
   227   212   217 1   
   228   213   214 ar  
   229   213   218 1   
   230   214   219 1   
   231   219   220 ar  
   232   219   224 ar  
   233   220   221 ar  
   234   220   225 1   
   235   221   222 ar  
   236   221   226 1   
   237   222   223 ar  
   238   222   227 1   
   239   223   224 ar  
   240   223   228 1   
   241   230   231 ar  
   242   230   235 ar  
   243   231   232 ar  
   244   231   236 1   
   245   232   233 ar  
   246   232   237 1   
   247   233   234 ar  
   248   233   238 1   
   249   234   235 ar  
   250   234   239 1   
   251   235   240 1   
   252   240   241 ar  
   253   240   245 ar  
   254   241   242 ar  
   255   241   246 1   
   256   242   243 ar  
   257   242   247 1   
   258   243   244 ar  
   259   243   248 1   
   260   244   245 ar  
   261   244   249 1   
   262   251   252 ar  
   263   251   256 ar  
   264   252   253 ar  
   265   252   257 1   
   266   253   254 ar  
   267   253   258 1   
   268   254   255 ar  
   269   254   259 1   
   270   255   256 ar  
   271   255   260 1   
   272   256   261 1   
   273   261   262 ar  
   274   261   266 ar  
   275   262   263 ar  
   276   262   267 1   
   277   263   264 ar  
   278   263   268 1   
   279   264   265 ar  
   280   264   269 1   
   281   265   266 ar  
   282   265   270 1   
@<TRIPOS>SUBSTRUCTURE
     1 MOL         1 TEMP              0 ****  ****    0 ROOT
