@<TRIPOS>MOLECULE
MOL
   39    42     1     0     0
SMALL
resp


@<TRIPOS>ATOM
      1 C1          -0.4160     0.0510    -0.0000 c3         1 MOL       0.581021
      2 C2          -2.5650     1.4270     0.0010 c3         1 MOL       0.469531
      3 C3          -2.4920    -0.7460    -1.2600 c3         1 MOL       0.469531
      4 C4          -2.4910    -0.7470     1.2600 c3         1 MOL       0.469531
      5 C5          -1.0230     1.4770     0.0010 c3         1 MOL      -0.452419
      6 C6          -0.9500    -0.6880    -1.2620 c3         1 MOL      -0.452419
      7 C7          -0.9500    -0.6890     1.2620 c3         1 MOL      -0.452419
      8 C8          -3.0590     0.6870    -1.2580 c3         1 MOL      -0.491130
      9 C9          -3.0580     0.6860     1.2600 c3         1 MOL      -0.491130
     10 C10         -2.9770    -1.4930    -0.0000 c3         1 MOL      -0.491130
     11 C11          1.1180     0.0570    -0.0000 ca         1 MOL      -0.039973
     12 C12          1.8780     1.2330    -0.0010 ca         1 MOL      -0.161662
     13 C13          1.8290    -1.1570    -0.0010 ca         1 MOL      -0.161662
     14 C14          3.2760     1.1980    -0.0020 ca         1 MOL      -0.247858
     15 C15          3.2190    -1.1910    -0.0020 ca         1 MOL      -0.247858
     16 C16          3.9750    -0.0100    -0.0020 ca         1 MOL       0.288049
     17 C17          5.4860    -0.0530     0.0030 c3         1 MOL      -0.419839
     18 H1          -2.9540     2.4540     0.0020 hc         1 MOL      -0.036654
     19 H2          -2.8330    -1.2780    -2.1580 hc         1 MOL      -0.036654
     20 H3          -2.8320    -1.2800     2.1580 hc         1 MOL      -0.036654
     21 H4          -0.6760     2.0310    -0.8820 hc         1 MOL       0.081990
     22 H5          -0.6750     2.0310     0.8830 hc         1 MOL       0.081990
     23 H6          -0.5430    -1.7060    -1.3010 hc         1 MOL       0.081990
     24 H7          -0.5900    -0.1720    -2.1630 hc         1 MOL       0.081990
     25 H8          -0.5890    -0.1740     2.1630 hc         1 MOL       0.081990
     26 H9          -0.5430    -1.7080     1.2990 hc         1 MOL       0.081990
     27 H10         -4.1570     0.6610    -1.2750 hc         1 MOL       0.097685
     28 H11         -2.7370     1.2220    -2.1620 hc         1 MOL       0.097685
     29 H12         -2.7360     1.2200     2.1640 hc         1 MOL       0.097685
     30 H13         -4.1570     0.6600     1.2780 hc         1 MOL       0.097685
     31 H14         -4.0730    -1.5610     0.0000 hc         1 MOL       0.097685
     32 H15         -2.5930    -2.5230    -0.0010 hc         1 MOL       0.097685
     33 H16          1.3890     2.2010    -0.0020 ha         1 MOL       0.126034
     34 H17          1.2870    -2.0990    -0.0020 ha         1 MOL       0.126034
     35 H18          3.8290     2.1360    -0.0030 ha         1 MOL       0.136121
     36 H19          3.7280    -2.1540    -0.0030 ha         1 MOL       0.136121
     37 H20          5.8740    -0.6390    -0.8390 hc         1 MOL       0.113145
     38 H21          5.9140     0.9530    -0.0650 hc         1 MOL       0.113145
     39 H22          5.8710    -0.5160     0.9210 hc         1 MOL       0.113145
@<TRIPOS>BOND
     1     1     5 1   
     2     1     6 1   
     3     1     7 1   
     4     1    11 1   
     5     2     5 1   
     6     2     8 1   
     7     2     9 1   
     8     2    18 1   
     9     3     6 1   
    10     3     8 1   
    11     3    10 1   
    12     3    19 1   
    13     4     7 1   
    14     4     9 1   
    15     4    10 1   
    16     4    20 1   
    17     5    21 1   
    18     5    22 1   
    19     6    23 1   
    20     6    24 1   
    21     7    25 1   
    22     7    26 1   
    23     8    27 1   
    24     8    28 1   
    25     9    29 1   
    26     9    30 1   
    27    10    31 1   
    28    10    32 1   
    29    11    12 ar  
    30    11    13 ar  
    31    12    14 ar  
    32    12    33 1   
    33    13    15 ar  
    34    13    34 1   
    35    14    16 ar  
    36    14    35 1   
    37    15    16 ar  
    38    15    36 1   
    39    16    17 1   
    40    17    37 1   
    41    17    38 1   
    42    17    39 1   
@<TRIPOS>SUBSTRUCTURE
     1 MOL         1 TEMP              0 ****  ****    0 ROOT
