@<TRIPOS>MOLECULE
M
   36    39     1     0     0
SMALL
bcc


@<TRIPOS>ATOM
      1 C1          32.6100    39.8720    30.4230 cp         1 M         0.731500
      2 N1          32.3430    38.6090    30.1040 nb         1 M        -0.712333
      3 C2          32.6370    37.7050    31.0310 cp         1 M         0.731500
      4 N2          33.1980    37.9930    32.2200 nb         1 M        -0.712333
      5 C3          33.3950    39.3020    32.4330 cp         1 M         0.731500
      6 N3          33.1160    40.2740    31.5830 nb         1 M        -0.712333
      7 C4          32.3430    40.8960    29.3710 cp         1 M        -0.116167
      8 C5          32.6310    42.2420    29.5700 ca         1 M        -0.200300
      9 C6          32.4780    43.1220    28.5350 ca         1 M         0.384533
     10 N4          32.0120    42.7330    27.3260 nb         1 M        -0.646667
     11 C7          31.7150    41.4420    27.1420 ca         1 M         0.384533
     12 C8          31.8160    40.5070    28.1470 ca         1 M        -0.200300
     13 H1          32.9340    42.5470    30.4180 ha         1 M         0.159333
     14 H2          32.7040    44.0350    28.6680 h4         1 M         0.028100
     15 H3          31.4220    41.1590    26.2840 h4         1 M         0.028100
     16 H4          31.5320    39.6110    28.0050 ha         1 M         0.159333
     17 C9          32.3680    36.3010    30.6950 cp         1 M        -0.116167
     18 C10         31.7150    35.9970    29.5370 ca         1 M        -0.200300
     19 C11         31.5520    34.6520    29.1690 ca         1 M         0.384533
     20 N5          31.9690    33.6710    29.9170 nb         1 M        -0.646667
     21 C12         32.5880    33.9590    31.0770 ca         1 M         0.384533
     22 C13         32.8000    35.2430    31.4690 ca         1 M        -0.200300
     23 H5          31.3710    36.6910    28.9850 ha         1 M         0.159333
     24 H6          31.1200    34.4510    28.3460 h4         1 M         0.028100
     25 H7          32.8810    33.2500    31.6380 h4         1 M         0.028100
     26 H8          33.2510    35.4150    32.2850 ha         1 M         0.159333
     27 C14         33.9770    39.6890    33.7650 cp         1 M        -0.116167
     28 C15         34.0780    38.7900    34.8000 ca         1 M        -0.200300
     29 C16         34.6550    39.2040    35.9770 ca         1 M         0.384533
     30 N6          35.1020    40.4800    36.1560 nb         1 M        -0.646667
     31 C17         34.9950    41.3260    35.1420 ca         1 M         0.384533
     32 C18         34.4370    40.9950    33.9380 ca         1 M        -0.200300
     33 H9          33.7550    37.9000    34.7020 ha         1 M         0.159333
     34 H10         34.7450    38.5820    36.6900 h4         1 M         0.028100
     35 H11         35.3220    42.2090    35.2580 h4         1 M         0.028100
     36 H12         34.3630    41.6360    33.2400 ha         1 M         0.159333
@<TRIPOS>BOND
     1     1     2 ar  
     2     1     6 ar  
     3     1     7 1   
     4     2     3 ar  
     5     3     4 ar  
     6     3    17 1   
     7     4     5 ar  
     8     5     6 ar  
     9     5    27 1   
    10     7     8 ar  
    11     7    12 ar  
    12     8     9 ar  
    13     8    13 1   
    14     9    10 ar  
    15     9    14 1   
    16    10    11 ar  
    17    11    12 ar  
    18    11    15 1   
    19    12    16 1   
    20    17    18 ar  
    21    17    22 ar  
    22    18    19 ar  
    23    18    23 1   
    24    19    20 ar  
    25    19    24 1   
    26    20    21 ar  
    27    21    22 ar  
    28    21    25 1   
    29    22    26 1   
    30    27    28 ar  
    31    27    32 ar  
    32    28    29 ar  
    33    28    33 1   
    34    29    30 ar  
    35    29    34 1   
    36    30    31 ar  
    37    31    32 ar  
    38    31    35 1   
    39    32    36 1   
@<TRIPOS>SUBSTRUCTURE
     1 M           1 TEMP              0 ****  ****    0 ROOT
