@<TRIPOS>MOLECULE
P
   24    23     1     0     0
SMALL
bcc


@<TRIPOS>ATOM
      1 N           -0.8670   -10.7780    -2.2310 n3         1 P        -0.728600
      2 C            0.1560   -10.6030    -3.2900 c3         1 P         0.155600
      3 C1          -0.1790   -11.2490    -1.0520 c3         1 P         0.155600
      4 C2          -1.7960   -11.7570    -2.8870 c3         1 P         0.173800
      5 H           -0.2650   -10.2920    -4.0940 h1         1 P         0.030867
      6 H1           0.5880   -11.4440    -3.4590 h1         1 P         0.030867
      7 H2           0.8080    -9.9610    -3.0010 h1         1 P         0.030867
      8 H3          -0.8130   -11.3780    -0.3440 h1         1 P         0.030867
      9 H4           0.4770   -10.6010    -0.7830 h1         1 P         0.030867
     10 H5           0.2550   -12.0820    -1.2470 h1         1 P         0.030867
     11 H6          -1.8650   -11.5450    -3.8330 h1         1 P         0.028200
     12 H7          -1.4220   -12.6490    -2.8100 h1         1 P         0.028200
     13 C3          -3.0740   -11.7450    -2.3240 c3         1 P         0.173800
     14 N1          -3.6200   -10.3910    -2.1030 n3         1 P        -0.728600
     15 H8          -3.0430   -12.2110    -1.4720 h1         1 P         0.028200
     16 H9          -3.6770   -12.2330    -2.9030 h1         1 P         0.028200
     17 C4          -4.5010   -10.0040    -3.2250 c3         1 P         0.155600
     18 C5          -4.4490   -10.4010    -0.8980 c3         1 P         0.155600
     19 H10         -3.9920    -9.9840    -4.0400 h1         1 P         0.030867
     20 H11         -4.8720    -9.1360    -3.0580 h1         1 P         0.030867
     21 H12         -5.2110   -10.6460    -3.3100 h1         1 P         0.030867
     22 H13         -3.9120   -10.6500    -0.1430 h1         1 P         0.030867
     23 H14         -5.1620   -11.0360    -1.0050 h1         1 P         0.030867
     24 H15         -4.8180    -9.5270    -0.7550 h1         1 P         0.030867
@<TRIPOS>BOND
     1     1     2 1   
     2     1     3 1   
     3     1     4 1   
     4     2     5 1   
     5     2     6 1   
     6     2     7 1   
     7     3     8 1   
     8     3     9 1   
     9     3    10 1   
    10     4    11 1   
    11     4    12 1   
    12     4    13 1   
    13    13    14 1   
    14    13    15 1   
    15    13    16 1   
    16    14    17 1   
    17    14    18 1   
    18    17    19 1   
    19    17    20 1   
    20    17    21 1   
    21    18    22 1   
    22    18    23 1   
    23    18    24 1   
@<TRIPOS>SUBSTRUCTURE
     1 P           1 TEMP              0 ****  ****    0 ROOT
