@<TRIPOS>MOLECULE
MOL
  294   294     1     0     0
SMALL
resp


@<TRIPOS>ATOM
      1 C1          -5.3610    -2.7940     1.5960 cp         1 MOL       0.872973
      2 N1          -4.7760    -3.8960     1.0990 nb         1 MOL      -0.790560
      3 C2          -3.8900    -4.5040     1.9030 cp         1 MOL       0.872973
      4 N2          -3.5710    -4.0720     3.1340 nb         1 MOL      -0.790560
      5 C3          -4.2040    -2.9640     3.5490 cp         1 MOL       0.872973
      6 N3          -5.1030    -2.2900     2.8140 nb         1 MOL      -0.790560
      7 C4          -6.3310    -2.0540     0.7200 cp         1 MOL      -0.065191
      8 C5          -6.9600    -0.8790     1.1550 ca         1 MOL      -0.078783
      9 C6          -7.8090    -0.1890     0.2910 ca         1 MOL      -0.068019
     10 N4          -8.0680    -0.6000    -0.9700 nb         1 MOL       0.036540
     11 C7          -7.4890    -1.7490    -1.3820 ca         1 MOL      -0.068019
     12 C8          -6.6270    -2.4950    -0.5780 ca         1 MOL      -0.078783
     13 H1          -6.7960    -0.5020     2.1570 ha         1 MOL       0.157349
     14 H2          -8.3020     0.7210     0.6170 h4         1 MOL       0.152905
     15 H3          -7.7300    -2.0830    -2.3850 h4         1 MOL       0.152905
     16 H4          -6.1970    -3.4120    -0.9630 ha         1 MOL       0.157349
     17 C9          -3.1800    -5.7190     1.3780 cp         1 MOL      -0.065191
     18 C10         -3.4340    -6.2160     0.0920 ca         1 MOL      -0.078783
     19 C11         -2.7120    -7.3120    -0.3810 ca         1 MOL      -0.068019
     20 N5          -1.7620    -7.9360     0.3490 nb         1 MOL       0.036540
     21 C12         -1.5380    -7.4820     1.6010 ca         1 MOL      -0.068019
     22 C13         -2.2170    -6.3920     2.1450 ca         1 MOL      -0.078783
     23 H5          -4.1880    -5.7600    -0.5390 ha         1 MOL       0.157349
     24 H6          -2.9000    -7.7050    -1.3750 h4         1 MOL       0.152905
     25 H7          -0.7950    -8.0130     2.1870 h4         1 MOL       0.152905
     26 H8          -1.9970    -6.0760     3.1570 ha         1 MOL       0.157349
     27 C14         -3.8520    -2.4180     4.9040 cp         1 MOL      -0.065191
     28 C15         -2.9000    -3.0450     5.7200 ca         1 MOL      -0.078783
     29 C16         -2.5580    -2.4750     6.9470 ca         1 MOL      -0.068019
     30 N6          -3.1070    -1.3290     7.4030 nb         1 MOL       0.036540
     31 C17         -4.0480    -0.7390     6.6340 ca         1 MOL      -0.068019
     32 C18         -4.4430    -1.2450     5.3960 ca         1 MOL      -0.078783
     33 H9          -2.4280    -3.9700     5.4110 ha         1 MOL       0.157349
     34 H10         -1.8230    -2.9520     7.5870 h4         1 MOL       0.152905
     35 H11         -4.5030     0.1650     7.0280 h4         1 MOL       0.152905
     36 H12         -5.2070    -0.7290     4.8270 ha         1 MOL       0.157349
     37 C19         -1.9000     4.9060    -3.3700 cp         1 MOL       0.872973
     38 N7          -1.0940     4.3960    -4.3140 nb         1 MOL      -0.790560
     39 C20         -1.5920     3.3650    -5.0160 cp         1 MOL       0.872973
     40 N8          -2.8100     2.8380    -4.8170 nb         1 MOL      -0.790560
     41 C21         -3.5470     3.4110    -3.8520 cp         1 MOL       0.872973
     42 N9          -3.1310     4.4440    -3.1010 nb         1 MOL      -0.790560
     43 C22         -1.3730     6.0360    -2.5320 cp         1 MOL      -0.065191
     44 C23         -2.1400     6.6050    -1.5040 ca         1 MOL      -0.078783
     45 C24         -1.5920     7.6120    -0.7100 ca         1 MOL      -0.068019
     46 N10         -0.3380     8.0830    -0.8810 nb         1 MOL       0.036540
     47 C25          0.3920     7.5610    -1.8900 ca         1 MOL      -0.068019
     48 C26         -0.0830     6.5510    -2.7260 ca         1 MOL      -0.078783
     49 H13         -3.1540     6.2730    -1.3220 ha         1 MOL       0.157349
     50 H14         -2.1750     8.0600     0.0880 h4         1 MOL       0.152905
     51 H15          1.3860     7.9700    -2.0360 h4         1 MOL       0.152905
     52 H16          0.5480     6.1750    -3.5230 ha         1 MOL       0.157349
     53 C27         -0.7130     2.7340    -6.0580 cp         1 MOL      -0.065191
     54 C28          0.5840     3.2060    -6.3050 ca         1 MOL      -0.078783
     55 C29          1.3900     2.5570    -7.2400 ca         1 MOL      -0.068019
     56 N11          0.9800     1.4760    -7.9390 nb         1 MOL       0.036540
     57 C30         -0.2800     1.0380    -7.7280 ca         1 MOL      -0.068019
     58 C31         -1.1450     1.6310    -6.8090 ca         1 MOL      -0.078783
     59 H17          0.9670     4.0730    -5.7800 ha         1 MOL       0.157349
     60 H18          2.3940     2.9150    -7.4410 h4         1 MOL       0.152905
     61 H19         -0.6060     0.1880    -8.3190 h4         1 MOL       0.152905
     62 H20         -2.1470     1.2360    -6.6870 ha         1 MOL       0.157349
     63 C32         -4.9030     2.8330    -3.5640 cp         1 MOL      -0.065191
     64 C33         -5.4000     1.7370    -4.2840 ca         1 MOL      -0.078783
     65 C34         -6.6390     1.1930    -3.9470 ca         1 MOL      -0.068019
     66 N12         -7.4060     1.6750    -2.9460 nb         1 MOL       0.036540
     67 C35         -6.9450     2.7500    -2.2700 ca         1 MOL      -0.068019
     68 C36         -5.7170     3.3500    -2.5450 ca         1 MOL      -0.078783
     69 H21         -4.8330     1.3100    -5.1030 ha         1 MOL       0.157349
     70 H22         -7.0330     0.3450    -4.4980 h4         1 MOL       0.152905
     71 H23         -7.5850     3.1450    -1.4880 h4         1 MOL       0.152905
     72 H24         -5.4040     4.2140    -1.9710 ha         1 MOL       0.157349
     73 C37          3.8760     2.5510     4.1900 cp         1 MOL       0.872973
     74 N13          3.5810     3.7000     3.5600 nb         1 MOL      -0.790560
     75 C38          2.4070     4.2630     3.8850 cp         1 MOL       0.872973
     76 N14          1.5430     3.7430     4.7720 nb         1 MOL      -0.790560
     77 C39          1.9200     2.5930     5.3530 cp         1 MOL       0.872973
     78 N15          3.0750     1.9600     5.0900 nb         1 MOL      -0.790560
     79 C40          5.1610     1.8620     3.8310 cp         1 MOL      -0.065191
     80 C41          5.5290     0.6440     4.4220 ca         1 MOL      -0.078783
     81 C42          6.7020     0.0070     4.0200 ca         1 MOL      -0.068019
     82 N16          7.5240     0.5090     3.0740 nb         1 MOL       0.036540
     83 C43          7.1910     1.6980     2.5250 ca         1 MOL      -0.068019
     84 C44          6.0350     2.3960     2.8720 ca         1 MOL      -0.078783
     85 H25          4.9130     0.1940     5.1910 ha         1 MOL       0.157349
     86 H26          6.9970    -0.9350     4.4720 h4         1 MOL       0.152905
     87 H27          7.8760     2.1040     1.7890 h4         1 MOL       0.152905
     88 H28          5.8230     3.3480     2.4000 ha         1 MOL       0.157349
     89 C45          2.0140     5.5290     3.1790 cp         1 MOL      -0.065191
     90 C46          2.8450     6.1170     2.2140 ca         1 MOL      -0.078783
     91 C47          2.4190     7.2600     1.5390 ca         1 MOL      -0.068019
     92 N17          1.2260     7.8490     1.7700 nb         1 MOL       0.036540
     93 C48          0.4360     7.3050     2.7210 ca         1 MOL      -0.068019
     94 C49          0.7890     6.1620     3.4380 ca         1 MOL      -0.078783
     95 H29          3.8170     5.6940     1.9890 ha         1 MOL       0.157349
     96 H30          3.0550     7.7250     0.7920 h4         1 MOL       0.152905
     97 H31         -0.5050     7.8070     2.9180 h4         1 MOL       0.152905
     98 H32          0.1150     5.7750     4.1920 ha         1 MOL       0.157349
     99 C50          0.9710     1.9510     6.3240 cp         1 MOL      -0.065191
    100 C51         -0.2700     2.5300     6.6260 ca         1 MOL      -0.078783
    101 C52         -1.1480     1.8730     7.4870 ca         1 MOL      -0.068019
    102 N18         -0.8620     0.6860     8.0640 nb         1 MOL       0.036540
    103 C53          0.3450     0.1410     7.8020 ca         1 MOL      -0.068019
    104 C54          1.2760     0.7330     6.9500 ca         1 MOL      -0.078783
    105 H33         -0.5540     3.4850     6.1990 ha         1 MOL       0.157349
    106 H34         -2.1110     2.3130     7.7290 h4         1 MOL       0.152905
    107 H35          0.5740    -0.7980     8.2960 h4         1 MOL       0.152905
    108 H36          2.2310     0.2490     6.7820 ha         1 MOL       0.157349
    109 C55          3.3890    -4.6720    -2.4200 cp         1 MOL       0.872973
    110 N19          3.1260    -4.0730    -3.5930 nb         1 MOL      -0.790560
    111 C56          3.8790    -3.0010    -3.8860 cp         1 MOL       0.872973
    112 N20          4.8420    -2.5160    -3.0860 nb         1 MOL      -0.790560
    113 C57          5.0350    -3.1770    -1.9330 cp         1 MOL       0.872973
    114 N21          4.3300    -4.2560    -1.5570 nb         1 MOL      -0.790560
    115 C58          2.5460    -5.8510    -2.0280 cp         1 MOL      -0.065191
    116 C59          2.7360    -6.5140    -0.8070 ca         1 MOL      -0.078783
    117 C60          1.8940    -7.5680    -0.4530 ca         1 MOL      -0.068019
    118 N22          0.8840    -7.9980    -1.2410 nb         1 MOL       0.036540
    119 C61          0.7180    -7.3840    -2.4320 ca         1 MOL      -0.068019
    120 C62          1.5160    -6.3220    -2.8570 ca         1 MOL      -0.078783
    121 H37          3.5330    -6.2180    -0.1350 ha         1 MOL       0.157349
    122 H38          2.0330    -8.0890     0.4890 h4         1 MOL       0.152905
    123 H39         -0.0760    -7.7610    -3.0680 h4         1 MOL       0.152905
    124 H40          1.3370    -5.8730    -3.8260 ha         1 MOL       0.157349
    125 C63          3.5960    -2.2720    -5.1690 cp         1 MOL      -0.065191
    126 C64          2.5870    -2.6980    -6.0450 ca         1 MOL      -0.078783
    127 C65          2.3150    -1.9600    -7.1960 ca         1 MOL      -0.068019
    128 N23          2.9860    -0.8350    -7.5240 nb         1 MOL       0.036540
    129 C66          3.9810    -0.4400    -6.7000 ca         1 MOL      -0.068019
    130 C67          4.3120    -1.1210    -5.5300 ca         1 MOL      -0.078783
    131 H41          2.0170    -3.5960    -5.8390 ha         1 MOL       0.157349
    132 H42          1.5370    -2.2800    -7.8820 h4         1 MOL       0.152905
    133 H43          4.5320     0.4480    -6.9930 h4         1 MOL       0.152905
    134 H44          5.1240    -0.7580    -4.9110 ha         1 MOL       0.157349
    135 C68          6.0730    -2.6490    -0.9850 cp         1 MOL      -0.065191
    136 C69          6.8340    -1.5110    -1.2920 ca         1 MOL      -0.078783
    137 C70          7.7460    -1.0180    -0.3590 ca         1 MOL      -0.068019
    138 N24          7.9450    -1.5900     0.8480 nb         1 MOL       0.036540
    139 C71          7.2380    -2.7040     1.1350 ca         1 MOL      -0.068019
    140 C72          6.3060    -3.2580     0.2570 ca         1 MOL      -0.078783
    141 H45          6.7230    -1.0130    -2.2470 ha         1 MOL       0.157349
    142 H46          8.3410    -0.1390    -0.5860 h4         1 MOL       0.152905
    143 H47          7.4300    -3.1700     2.0960 h4         1 MOL       0.152905
    144 H48          5.7720    -4.1560     0.5420 ha         1 MOL       0.157349
    145 Pd1         -0.5300    -9.5730    -0.5370 Pd         1 MOL      -0.089374
    146 N25          0.6010   -11.2020    -1.3790 n3         1 MOL       0.260032
    148 C73          1.0210   -10.9570    -2.7920 c3         1 MOL      -0.519978
    149 C74          1.8180   -11.4340    -0.5390 c3         1 MOL      -0.519978
    150 C75         -0.3090   -12.4090    -1.3480 c3         1 MOL      -0.230643
    154 H49          0.1490   -10.7130    -3.4030 h1         1 MOL       0.213993
    155 H50          1.4880   -11.8640    -3.1950 h1         1 MOL       0.213993
    156 H51          1.7480   -10.1460    -2.8260 h1         1 MOL       0.213993
    157 H52          1.5410   -11.6410     0.4960 h1         1 MOL       0.213993
    158 H53          2.4580   -10.5500    -0.5780 h1         1 MOL       0.213993
    159 H54          2.3780   -12.2910    -0.9320 h1         1 MOL       0.213993
    160 H55         -0.9700   -12.3490    -2.2160 h1         1 MOL       0.195315
    161 H56          0.2940   -13.3190    -1.4630 h1         1 MOL       0.195315
    151 C76         -1.0870   -12.4400    -0.0560 c3         1 MOL      -0.230643
    147 N26         -1.8480   -11.1460     0.1230 n3         1 MOL       0.260032
    162 H57         -0.4290   -12.5610     0.8080 h1         1 MOL       0.195315
    163 H58         -1.7930   -13.2790    -0.0450 h1         1 MOL       0.195315
    152 C77         -3.0800   -11.1340    -0.7280 c3         1 MOL      -0.519978
    153 C78         -2.2420   -11.0190     1.5580 c3         1 MOL      -0.519978
    164 H59         -2.8240   -11.2500    -1.7820 h1         1 MOL       0.213993
    165 H60         -3.6120   -10.1920    -0.5800 h1         1 MOL       0.213993
    166 H61         -3.7390   -11.9590    -0.4310 h1         1 MOL       0.213993
    167 H62         -1.3500   -10.9530     2.1850 h1         1 MOL       0.213993
    168 H63         -2.8170   -11.9040     1.8580 h1         1 MOL       0.213993
    169 H64         -2.8670   -10.1350     1.6930 h1         1 MOL       0.213993
    170 Pd2         -9.2950     0.6480    -2.3510 Pd         1 MOL      -0.089374
    171 N27        -10.5420     1.8290    -3.6530 n3         1 MOL       0.260032
    172 C79        -10.2690     3.2950    -3.5590 c3         1 MOL      -0.519978
    173 C80        -10.3330     1.3810    -5.0670 c3         1 MOL      -0.519978
    174 C81        -11.9680     1.5770    -3.2180 c3         1 MOL      -0.230643
    175 H65        -10.3450     3.6210    -2.5200 h1         1 MOL       0.213993
    176 H66        -11.0110     3.8420    -4.1540 h1         1 MOL       0.213993
    177 H67         -9.2760     3.5110    -3.9550 h1         1 MOL       0.213993
    178 H68        -10.5480     0.3170    -5.1720 h1         1 MOL       0.213993
    179 H69         -9.3000     1.5770    -5.3590 h1         1 MOL       0.213993
    180 H70        -10.9990     1.9430    -5.7320 h1         1 MOL       0.213993
    181 H71        -12.1700     2.2160    -2.3550 h1         1 MOL       0.195315
    182 H72        -12.6510     1.8870    -4.0180 h1         1 MOL       0.195315
    183 C82        -12.1580     0.1170    -2.8850 c3         1 MOL      -0.230643
    184 N28        -11.1550    -0.3130    -1.8380 n3         1 MOL       0.260032
    185 H73        -12.0160    -0.5170    -3.7630 h1         1 MOL       0.195315
    186 H74        -13.1730    -0.0690    -2.5120 h1         1 MOL       0.195315
    187 C83        -11.5800     0.1450    -0.4780 c3         1 MOL      -0.519978
    188 C84        -11.0660    -1.8040    -1.8470 c3         1 MOL      -0.519978
    189 H75        -11.6780     1.2310    -0.4470 h1         1 MOL       0.213993
    190 H76        -10.8430    -0.1790     0.2590 h1         1 MOL       0.213993
    191 H77        -12.5480    -0.3050    -0.2260 h1         1 MOL       0.213993
    192 H78        -10.6870    -2.1490    -2.8120 h1         1 MOL       0.213993
    193 H79        -12.0660    -2.2290    -1.6910 h1         1 MOL       0.213993
    194 H80        -10.4140    -2.1400    -1.0400 h1         1 MOL       0.213993
    195 Pd3         -2.3870    -0.3850     9.2920 Pd         1 MOL      -0.089374
    196 N29         -1.7380     0.4800    11.1550 n3         1 MOL       0.260032
    197 C85         -0.2580     0.4270    11.3440 c3         1 MOL      -0.519978
    198 C86         -2.1880     1.9080    11.2110 c3         1 MOL      -0.519978
    199 C87         -2.3940    -0.3300    12.2510 c3         1 MOL      -0.230643
    200 H81          0.0950    -0.6010    11.2330 h1         1 MOL       0.213993
    201 H82         -0.0060     0.7760    12.3530 h1         1 MOL       0.213993
    202 H83          0.2310     1.0770    10.6180 h1         1 MOL       0.213993
    203 H84         -3.2720     1.9770    11.1020 h1         1 MOL       0.213993
    204 H85         -1.7020     2.4720    10.4130 h1         1 MOL       0.213993
    205 H86         -1.9020     2.3450    12.1750 h1         1 MOL       0.213993
    206 H87         -1.7930    -1.2310    12.4010 h1         1 MOL       0.195315
    207 H88         -2.3640     0.2380    13.1890 h1         1 MOL       0.195315
    208 C88         -3.8150    -0.6660    11.8700 c3         1 MOL      -0.230643
    209 N30         -3.8420    -1.3770    10.5360 n3         1 MOL       0.260032
    210 H89         -4.4310     0.2320    11.7810 h1         1 MOL       0.195315
    211 H90         -4.2830    -1.3030    12.6300 h1         1 MOL       0.195315
    212 C89         -3.4480    -2.8130    10.6940 c3         1 MOL      -0.519978
    213 C90         -5.2290    -1.3070     9.9870 c3         1 MOL      -0.519978
    214 H91         -2.4460    -2.8960    11.1170 h1         1 MOL       0.213993
    215 H92         -3.4780    -3.3060     9.7210 h1         1 MOL       0.213993
    216 H93         -4.1570    -3.3160    11.3640 h1         1 MOL       0.213993
    217 H94         -5.5030    -0.2670     9.7970 h1         1 MOL       0.213993
    218 H95         -5.9320    -1.7260    10.7190 h1         1 MOL       0.213993
    219 H96         -5.2930    -1.8910     9.0690 h1         1 MOL       0.213993
    220 Pd4          0.5360     9.5720     0.5320 Pd         1 MOL      -0.089374
    221 N31         -0.0930    11.2830    -0.6200 n3         1 MOL       0.260032
    222 C91          0.2120    11.1560    -2.0760 c3         1 MOL      -0.519978
    223 C92         -1.5670    11.4710    -0.4420 c3         1 MOL      -0.519978
    224 C93          0.6690    12.4670    -0.0690 c3         1 MOL      -0.230643
    225 H97          1.2740    10.9410    -2.2170 h1         1 MOL       0.213993
    226 H98         -0.0240    12.1000    -2.5820 h1         1 MOL       0.213993
    227 H99         -0.3970    10.3640    -2.5140 h1         1 MOL       0.213993
    228 H100        -1.8180    11.5920     0.6130 h1         1 MOL       0.213993
    229 H101        -2.0940    10.6060    -0.8480 h1         1 MOL       0.213993
    230 H102        -1.8910    12.3670    -0.9860 h1         1 MOL       0.213993
    231 H103         1.6630    12.4620    -0.5210 h1         1 MOL       0.195315
    232 H104         0.1740    13.3940    -0.3850 h1         1 MOL       0.195315
    233 C94          0.7400    12.3840     1.4360 c3         1 MOL      -0.230643
    234 N32          1.3510    11.0650     1.8550 n3         1 MOL       0.260032
    235 H105        -0.2510    12.4510     1.8910 h1         1 MOL       0.195315
    236 H106         1.3400    13.2070     1.8440 h1         1 MOL       0.195315
    237 C95          2.8390    11.0960     1.6930 c3         1 MOL      -0.519978
    238 C96          1.0190    10.8230     3.2920 c3         1 MOL      -0.519978
    239 H107         3.1110    11.2950     0.6560 h1         1 MOL       0.213993
    240 H108         3.2560    10.1370     2.0060 h1         1 MOL       0.213993
    241 H109         3.2610    11.8860     2.3270 h1         1 MOL       0.213993
    242 H110        -0.0620    10.7280     3.4130 h1         1 MOL       0.213993
    243 H111         1.3660    11.6720     3.8930 h1         1 MOL       0.213993
    244 H112         1.5230     9.9210     3.6400 h1         1 MOL       0.213993
    245 Pd5          9.2920    -0.6480     2.3570 Pd         1 MOL      -0.089374
    246 N33         11.0380    -1.7430     1.7240 n3         1 MOL       0.260032
    247 C97         10.7860    -3.2060     1.5560 c3         1 MOL      -0.519978
    248 C98         11.5210    -1.1760     0.4260 c3         1 MOL      -0.519978
    249 C99         12.0740    -1.5540     2.8100 c3         1 MOL      -0.230643
    250 H113        10.3650    -3.6190     2.4750 h1         1 MOL       0.213993
    251 H114        11.7330    -3.7170     1.3440 h1         1 MOL       0.213993
    252 H115        10.1060    -3.3690     0.7200 h1         1 MOL       0.213993
    253 H116        11.7360    -0.1110     0.5230 h1         1 MOL       0.213993
    254 H117        10.7590    -1.3290    -0.3400 h1         1 MOL       0.213993
    255 H118        12.4380    -1.6940     0.1170 h1         1 MOL       0.213993
    256 H119        11.8530    -2.2680     3.6070 h1         1 MOL       0.195315
    257 H120        13.0640    -1.8090     2.4140 h1         1 MOL       0.195315
    258 C100        12.0460    -0.1320     3.3120 c3         1 MOL      -0.230643
    259 N34         10.6530     0.2280     3.7800 n3         1 MOL       0.260032
    260 H121        12.3280     0.5780     2.5300 h1         1 MOL       0.195315
    261 H122        12.7520     0.0040     4.1410 h1         1 MOL       0.195315
    262 C101        10.3800    -0.3550     5.1310 c3         1 MOL      -0.519978
    263 C102        10.5450     1.7160     3.8570 c3         1 MOL      -0.519978
    264 H123        10.4770    -1.4410     5.1110 h1         1 MOL       0.213993
    265 H124         9.3720    -0.0810     5.4450 h1         1 MOL       0.213993
    266 H125        11.0960     0.0490     5.8570 h1         1 MOL       0.213993
    267 H126        10.6690     2.1500     2.8630 h1         1 MOL       0.213993
    268 H127        11.3370     2.1050     4.5100 h1         1 MOL       0.213993
    269 H128         9.5790     1.9950     4.2770 h1         1 MOL       0.213993
    270 Pd6          2.3830     0.3880    -9.2900 Pd         1 MOL      -0.089374
    271 N35          1.8390     1.5240   -11.0390 n3         1 MOL       0.260032
    272 C103         0.3620     1.6500   -11.2210 c3         1 MOL      -0.519978
    273 C104         2.4400     2.8910   -10.9370 c3         1 MOL      -0.519978
    274 C105         2.4090     0.7770   -12.2240 c3         1 MOL      -0.230643
    275 H129        -0.0990     0.6590   -11.2240 h1         1 MOL       0.213993
    276 H130         0.1530     2.1360   -12.1820 h1         1 MOL       0.213993
    277 H131        -0.0580     2.2610   -10.4220 h1         1 MOL       0.213993
    278 H132         3.5230     2.8310   -10.8250 h1         1 MOL       0.213993
    279 H133         2.0100     3.4110   -10.0790 h1         1 MOL       0.213993
    280 H134         2.2100     3.4620   -11.8450 h1         1 MOL       0.213993
    281 H135         1.7160    -0.0310   -12.4720 h1         1 MOL       0.195315
    282 H136         2.4460     1.4480   -13.0910 h1         1 MOL       0.195315
    283 C106         3.7830     0.2500   -11.8940 c3         1 MOL      -0.230643
    284 N36          3.7270    -0.6080   -10.6500 n3         1 MOL       0.260032
    285 H137         4.4920     1.0600   -11.7070 h1         1 MOL       0.195315
    286 H138         4.1840    -0.3440   -12.7250 h1         1 MOL       0.195315
    287 C107         3.1820    -1.9660   -10.9670 c3         1 MOL      -0.519978
    288 C108         5.1110    -0.7520   -10.1070 c3         1 MOL      -0.519978
    289 H139         2.1810    -1.8930   -11.3930 h1         1 MOL       0.213993
    290 H140         3.1520    -2.5650   -10.0550 h1         1 MOL       0.213993
    291 H141         3.8380    -2.4640   -11.6910 h1         1 MOL       0.213993
    292 H142         5.4960     0.2240    -9.8020 h1         1 MOL       0.213993
    293 H143         5.7680    -1.1590   -10.8860 h1         1 MOL       0.213993
    294 H144         5.1060    -1.4400    -9.2610 h1         1 MOL       0.213993
@<TRIPOS>BOND
     1     1     2 ar  
     2     1     6 ar  
     3     1     7 1   
     4     2     3 ar  
     5     3     4 ar  
     6     3    17 1   
     7     4     5 ar  
     8     5     6 ar  
     9     5    27 1   
    10     7     8 ar  
    11     7    12 ar  
    12     8     9 ar  
    13     8    13 1   
    14     9    10 ar  
    15     9    14 1   
    16    10    11 ar  
    17    11    12 ar  
    18    11    15 1   
    19    12    16 1   
    20    17    18 ar  
    21    17    22 ar  
    22    18    19 ar  
    23    18    23 1   
    24    19    20 ar  
    25    19    24 1   
    26    20    21 ar  
    27    21    22 ar  
    28    21    25 1   
    29    22    26 1   
    30    27    28 ar  
    31    27    32 ar  
    32    28    29 ar  
    33    28    33 1   
    34    29    30 ar  
    35    29    34 1   
    36    30    31 ar  
    37    31    32 ar  
    38    31    35 1   
    39    32    36 1   
    40    37    38 ar  
    41    37    42 ar  
    42    37    43 1   
    43    38    39 ar  
    44    39    40 ar  
    45    39    53 1   
    46    40    41 ar  
    47    41    42 ar  
    48    41    63 1   
    49    43    44 ar  
    50    43    48 ar  
    51    44    45 ar  
    52    44    49 1   
    53    45    46 ar  
    54    45    50 1   
    55    46    47 ar  
    56    47    48 ar  
    57    47    51 1   
    58    48    52 1   
    59    53    54 ar  
    60    53    58 ar  
    61    54    55 ar  
    62    54    59 1   
    63    55    56 ar  
    64    55    60 1   
    65    56    57 ar  
    66    57    58 ar  
    67    57    61 1   
    68    58    62 1   
    69    63    64 ar  
    70    63    68 ar  
    71    64    65 ar  
    72    64    69 1   
    73    65    66 ar  
    74    65    70 1   
    75    66    67 ar  
    76    67    68 ar  
    77    67    71 1   
    78    68    72 1   
    79    73    74 ar  
    80    73    78 ar  
    81    73    79 1   
    82    74    75 ar  
    83    75    76 ar  
    84    75    89 1   
    85    76    77 ar  
    86    77    78 ar  
    87    77    99 1   
    88    79    80 ar  
    89    79    84 ar  
    90    80    81 ar  
    91    80    85 1   
    92    81    82 ar  
    93    81    86 1   
    94    82    83 ar  
    95    83    84 ar  
    96    83    87 1   
    97    84    88 1   
    98    89    90 ar  
    99    89    94 ar  
   100    90    91 ar  
   101    90    95 1   
   102    91    92 ar  
   103    91    96 1   
   104    92    93 ar  
   105    93    94 ar  
   106    93    97 1   
   107    94    98 1   
   108    99   100 ar  
   109    99   104 ar  
   110   100   101 ar  
   111   100   105 1   
   112   101   102 ar  
   113   101   106 1   
   114   102   103 ar  
   115   103   104 ar  
   116   103   107 1   
   117   104   108 1   
   118   109   110 ar  
   119   109   114 ar  
   120   109   115 1   
   121   110   111 ar  
   122   111   112 ar  
   123   111   125 1   
   124   112   113 ar  
   125   113   114 ar  
   126   113   135 1   
   127   115   116 ar  
   128   115   120 ar  
   129   116   117 ar  
   130   116   121 1   
   131   117   118 ar  
   132   117   122 1   
   133   118   119 ar  
   134   119   120 ar  
   135   119   123 1   
   136   120   124 1   
   137   125   126 ar  
   138   125   130 ar  
   139   126   127 ar  
   140   126   131 1   
   141   127   128 ar  
   142   127   132 1   
   143   128   129 ar  
   144   129   130 ar  
   145   129   133 1   
   146   130   134 1   
   147   135   136 ar  
   148   135   140 ar  
   149   136   137 ar  
   150   136   141 1   
   151   137   138 ar  
   152   137   142 1   
   153   138   139 ar  
   154   139   140 ar  
   155   139   143 1   
   156   140   144 1   
   157   146   148 1   
   158   146   149 1   
   159   146   150 1   
   160   147   151 1   
   161   147   152 1   
   162   147   153 1   
   163   148   154 1   
   164   148   155 1   
   165   148   156 1   
   166   149   157 1   
   167   149   158 1   
   168   149   159 1   
   169   150   151 1   
   170   150   160 1   
   171   150   161 1   
   172   151   162 1   
   173   151   163 1   
   174   152   164 1   
   175   152   165 1   
   176   152   166 1   
   177   153   167 1   
   178   153   168 1   
   179   153   169 1   
   180   171   172 1   
   181   171   173 1   
   182   171   174 1   
   183   172   175 1   
   184   172   176 1   
   185   172   177 1   
   186   173   178 1   
   187   173   179 1   
   188   173   180 1   
   189   174   181 1   
   190   174   182 1   
   191   174   183 1   
   192   183   184 1   
   193   183   185 1   
   194   183   186 1   
   195   184   187 1   
   196   184   188 1   
   197   187   189 1   
   198   187   190 1   
   199   187   191 1   
   200   188   192 1   
   201   188   193 1   
   202   188   194 1   
   203   196   197 1   
   204   196   198 1   
   205   196   199 1   
   206   197   200 1   
   207   197   201 1   
   208   197   202 1   
   209   198   203 1   
   210   198   204 1   
   211   198   205 1   
   212   199   206 1   
   213   199   207 1   
   214   199   208 1   
   215   208   209 1   
   216   208   210 1   
   217   208   211 1   
   218   209   212 1   
   219   209   213 1   
   220   212   214 1   
   221   212   215 1   
   222   212   216 1   
   223   213   217 1   
   224   213   218 1   
   225   213   219 1   
   226   221   222 1   
   227   221   223 1   
   228   221   224 1   
   229   222   225 1   
   230   222   226 1   
   231   222   227 1   
   232   223   228 1   
   233   223   229 1   
   234   223   230 1   
   235   224   231 1   
   236   224   232 1   
   237   224   233 1   
   238   233   234 1   
   239   233   235 1   
   240   233   236 1   
   241   234   237 1   
   242   234   238 1   
   243   237   239 1   
   244   237   240 1   
   245   237   241 1   
   246   238   242 1   
   247   238   243 1   
   248   238   244 1   
   249   246   247 1   
   250   246   248 1   
   251   246   249 1   
   252   247   250 1   
   253   247   251 1   
   254   247   252 1   
   255   248   253 1   
   256   248   254 1   
   257   248   255 1   
   258   249   256 1   
   259   249   257 1   
   260   249   258 1   
   261   258   259 1   
   262   258   260 1   
   263   258   261 1   
   264   259   262 1   
   265   259   263 1   
   266   262   264 1   
   267   262   265 1   
   268   262   266 1   
   269   263   267 1   
   270   263   268 1   
   271   263   269 1   
   272   271   272 1   
   273   271   273 1   
   274   271   274 1   
   275   272   275 1   
   276   272   276 1   
   277   272   277 1   
   278   273   278 1   
   279   273   279 1   
   280   273   280 1   
   281   274   281 1   
   282   274   282 1   
   283   274   283 1   
   284   283   284 1   
   285   283   285 1   
   286   283   286 1   
   287   284   287 1   
   288   284   288 1   
   289   287   289 1   
   290   287   290 1   
   291   287   291 1   
   292   288   292 1   
   293   288   293 1   
   294   288   294 1   
@<TRIPOS>SUBSTRUCTURE
     1 MOL         1 TEMP              0 ****  ****    0 ROOT
