@<TRIPOS>MOLECULE
MOL
   36    39     1     0     0
SMALL
resp


@<TRIPOS>ATOM
      1 N1          -3.9060    -3.8950     0.0980 nb         1 MOL      -0.657082
      2 N2          -1.4730     5.3190    -0.0460 nb         1 MOL      -0.657082
      3 N3           5.3840    -1.3740     0.0820 nb         1 MOL      -0.657082
      4 N4          -1.3230     0.3360    -0.0040 nb         1 MOL      -0.571202
      5 N5           0.9650     0.9590     0.0500 nb         1 MOL      -0.571202
      6 N6           0.3840    -1.3220    -0.1130 nb         1 MOL      -0.571202
      7 C1          -4.2320    -2.6530     0.0320 ca         1 MOL       0.470598
      8 H1          -5.1530    -2.4230     0.0380 h4         1 MOL       0.011613
      9 C2          -3.2960    -1.6480    -0.0440 ca         1 MOL      -0.392144
     10 H2          -3.5660    -0.7380    -0.0910 ha         1 MOL       0.151810
     11 C3          -1.9610    -1.9910    -0.0570 cp         1 MOL       0.141939
     12 C4          -1.6360    -3.3090    -0.0310 ca         1 MOL      -0.392144
     13 H3          -0.7260    -3.5780    -0.0660 ha         1 MOL       0.151810
     14 C5          -2.6180    -4.2450     0.0480 ca         1 MOL       0.470598
     15 H4          -2.3850    -5.1670     0.0650 h4         1 MOL       0.011613
     16 C6          -0.2410     4.9740    -0.1090 ca         1 MOL       0.470598
     17 H5           0.4060     5.6670    -0.1830 h4         1 MOL       0.011613
     18 C7           0.2230     3.6390    -0.0820 ca         1 MOL      -0.392144
     19 H6           1.1460     3.4210    -0.1430 ha         1 MOL       0.151810
     20 C8          -0.7610     2.6750     0.0470 cp         1 MOL       0.141939
     21 C9          -2.0620     3.0420     0.1110 ca         1 MOL      -0.392144
     22 H7          -2.7490     2.3900     0.1710 ha         1 MOL       0.151810
     23 C10         -2.3640     4.3760     0.0900 ca         1 MOL       0.470598
     24 H8          -3.2740     4.6310     0.1780 h4         1 MOL       0.011613
     25 C11          4.4350    -2.3160    -0.0540 ca         1 MOL       0.470598
     26 H9           4.6970    -3.2270    -0.1180 h4         1 MOL       0.011613
     27 C12          3.1020    -2.0080    -0.1090 ca         1 MOL      -0.392144
     28 H10          2.4560    -2.6970    -0.1980 ha         1 MOL       0.151810
     29 C13          2.7150    -0.7100    -0.0350 cp         1 MOL       0.141939
     30 C14          3.6960     0.2880     0.1020 ca         1 MOL      -0.392144
     31 H11          3.4640     1.2070     0.1670 ha         1 MOL       0.151810
     32 C15          4.9880    -0.1220     0.1380 ca         1 MOL       0.470598
     33 H12          5.6590     0.5470     0.2050 h4         1 MOL       0.011613
     34 C16         -0.9130    -0.9210    -0.0670 cp         1 MOL       0.602592
     35 C17         -0.3740     1.2260     0.0080 cp         1 MOL       0.602592
     36 C18          1.2660    -0.3280    -0.0710 cp         1 MOL       0.602592
@<TRIPOS>BOND
     1     1     7 ar  
     2     1    14 ar  
     3     2    16 ar  
     4     2    23 ar  
     5     3    25 ar  
     6     3    32 ar  
     7     4    34 ar  
     8     4    35 ar  
     9     5    35 ar  
    10     5    36 ar  
    11     6    34 ar  
    12     6    36 ar  
    13     7     8 1   
    14     7     9 ar  
    15     9    10 1   
    16     9    11 ar  
    17    11    12 ar  
    18    11    34 1   
    19    12    13 1   
    20    12    14 ar  
    21    14    15 1   
    22    16    17 1   
    23    16    18 ar  
    24    18    19 1   
    25    18    20 ar  
    26    20    21 ar  
    27    20    35 1   
    28    21    22 1   
    29    21    23 ar  
    30    23    24 1   
    31    25    26 1   
    32    25    27 ar  
    33    27    28 1   
    34    27    29 ar  
    35    29    30 ar  
    36    29    36 1   
    37    30    31 1   
    38    30    32 ar  
    39    32    33 1   
@<TRIPOS>SUBSTRUCTURE
     1 MOL         1 TEMP              0 ****  ****    0 ROOT
