@<TRIPOS>MOLECULE
MOL
   31    32     1     0     0
SMALL
resp


@<TRIPOS>ATOM
      1 S1          -3.5010     1.0360    -0.1670 ss         1 MOL       0.023677
      2 O1           0.8000     2.1490     0.0680 os         1 MOL      -0.136226
      3 O2           4.9960    -0.1370    -0.0170 os         1 MOL      -0.305118
      4 O3          -1.2600    -2.2670     0.0280 o          1 MOL      -0.515434
      5 N1          -0.5840    -0.0690     0.0150 n          1 MOL      -0.240441
      6 C1           0.8190    -0.2000     0.0070 ca         1 MOL      -0.043376
      7 C2           1.5610     1.0070     0.0340 ca         1 MOL       0.272199
      8 C3           1.5140    -1.4080    -0.0270 ca         1 MOL      -0.127411
      9 C4           2.9480     0.9900     0.0250 ca         1 MOL      -0.440880
     10 C5           3.6320    -0.2370    -0.0110 ca         1 MOL       0.422929
     11 C6           2.9150    -1.4320    -0.0370 ca         1 MOL      -0.333718
     12 C7          -1.5260    -1.0670     0.0170 c          1 MOL       0.585457
     13 C8          -2.9450    -0.6170     0.0090 cc         1 MOL      -0.235017
     14 C9          -4.0130    -1.4720     0.1370 cd         1 MOL       0.041545
     15 C10         -5.2730    -0.8120     0.1030 cd         1 MOL      -0.214322
     16 C11         -5.1580     0.5430    -0.0530 cc         1 MOL      -0.168298
     17 C12          1.4630     3.4040     0.0980 c3         1 MOL      -0.278796
     18 C13          5.7490    -1.3380    -0.0530 c3         1 MOL      -0.043633
     19 H1           0.9510    -2.3300    -0.0440 ha         1 MOL       0.182281
     20 H2           3.5330     1.9010     0.0440 ha         1 MOL       0.164099
     21 H3          -0.8950     0.8930     0.0540 hn         1 MOL       0.150723
     22 H4           3.4190    -2.3900    -0.0640 ha         1 MOL       0.153018
     23 H5          -3.8700    -2.5390     0.2510 ha         1 MOL       0.112606
     24 H6          -6.2270    -1.3220     0.1900 ha         1 MOL       0.156579
     25 H7          -5.9450     1.2830    -0.1160 h4         1 MOL       0.192171
     26 H8           0.6760     4.1590     0.1230 h1         1 MOL       0.135544
     27 H9           2.0810     3.5490    -0.7970 h1         1 MOL       0.135544
     28 H10          2.0920     3.5010     0.9920 h1         1 MOL       0.135544
     29 H11          6.7980    -1.0350    -0.0520 h1         1 MOL       0.072918
     30 H12          5.5510    -1.9650     0.8270 h1         1 MOL       0.072918
     31 H13          5.5400    -1.9190    -0.9610 h1         1 MOL       0.072918
@<TRIPOS>BOND
     1     1    13 1   
     2     1    16 1   
     3     2     7 1   
     4     2    17 1   
     5     3    10 1   
     6     3    18 1   
     7     4    12 2   
     8     5     6 1   
     9     5    12 1   
    10     5    21 1   
    11     6     7 ar  
    12     6     8 ar  
    13     7     9 ar  
    14     8    11 ar  
    15     8    19 1   
    16     9    10 ar  
    17     9    20 1   
    18    10    11 ar  
    19    11    22 1   
    20    12    13 1   
    21    13    14 2   
    22    14    15 1   
    23    14    23 1   
    24    15    16 2   
    25    15    24 1   
    26    16    25 1   
    27    17    26 1   
    28    17    27 1   
    29    17    28 1   
    30    18    29 1   
    31    18    30 1   
    32    18    31 1   
@<TRIPOS>SUBSTRUCTURE
     1 MOL         1 TEMP              0 ****  ****    0 ROOT
