@<TRIPOS>MOLECULE
MOL
   24    26     1     0     0
SMALL
resp


@<TRIPOS>ATOM
      1 C1           0.7290    -0.3810     0.0000 ca         1 MOL       0.031094
      2 C2          -0.7290    -0.3810    -0.0000 ca         1 MOL       0.031094
      3 C3           1.4230     0.8660     0.0000 ca         1 MOL       0.165960
      4 C4          -1.4230     0.8660    -0.0000 ca         1 MOL       0.165960
      5 C5           0.6800     2.0940    -0.0000 ca         1 MOL      -0.220702
      6 C6          -0.6800     2.0940    -0.0000 ca         1 MOL      -0.220702
      7 C7           1.5010    -1.5670     0.0000 ca         1 MOL      -0.170510
      8 C8          -1.5010    -1.5670    -0.0000 ca         1 MOL      -0.170510
      9 C9           2.8370     0.8790     0.0000 ca         1 MOL      -0.211616
     10 C10         -2.8370     0.8790    -0.0000 ca         1 MOL      -0.211616
     11 C11          2.8840    -1.5290     0.0000 ca         1 MOL      -0.131554
     12 C12         -2.8840    -1.5290    -0.0000 ca         1 MOL      -0.131554
     13 C13          3.5620    -0.2960     0.0000 ca         1 MOL      -0.099620
     14 C14         -3.5620    -0.2960    -0.0000 ca         1 MOL      -0.099620
     15 H1           1.2320     3.0300    -0.0000 ha         1 MOL       0.142481
     16 H2          -1.2320     3.0300    -0.0000 ha         1 MOL       0.142481
     17 H3           1.0080    -2.5330     0.0000 ha         1 MOL       0.126062
     18 H4          -1.0080    -2.5330    -0.0000 ha         1 MOL       0.126062
     19 H5           3.3480     1.8400     0.0000 ha         1 MOL       0.127161
     20 H6          -3.3480     1.8400    -0.0000 ha         1 MOL       0.127161
     21 H7           3.4470    -2.4580     0.0000 ha         1 MOL       0.121931
     22 H8          -3.4470    -2.4580    -0.0000 ha         1 MOL       0.121931
     23 H9           4.6480    -0.2710     0.0000 ha         1 MOL       0.119311
     24 H10         -4.6480    -0.2710    -0.0000 ha         1 MOL       0.119311
@<TRIPOS>BOND
     1     1     2 ar  
     2     1     3 ar  
     3     1     7 ar  
     4     2     4 ar  
     5     2     8 ar  
     6     3     5 ar  
     7     3     9 ar  
     8     4     6 ar  
     9     4    10 ar  
    10     5     6 ar  
    11     5    15 1   
    12     6    16 1   
    13     7    11 ar  
    14     7    17 1   
    15     8    12 ar  
    16     8    18 1   
    17     9    13 ar  
    18     9    19 1   
    19    10    14 ar  
    20    10    20 1   
    21    11    13 ar  
    22    11    21 1   
    23    12    14 ar  
    24    12    22 1   
    25    13    23 1   
    26    14    24 1   
@<TRIPOS>SUBSTRUCTURE
     1 MOL         1 TEMP              0 ****  ****    0 ROOT
