@<TRIPOS>MOLECULE
P
   20    21     1     0     0
SMALL
bcc


@<TRIPOS>ATOM
      1 N1          30.0470    44.4960    25.8970 nb         1 P        -0.631000
      2 C1          29.2100    44.1340    26.9050 ca         1 P         0.393200
      3 C2          27.9220    44.5880    26.9810 ca         1 P        -0.242300
      4 C3          27.4410    45.4150    25.9580 ca         1 P        -0.095000
      5 C4          28.3030    45.7680    24.9410 ca         1 P        -0.233300
      6 C5          29.5990    45.3290    24.9300 cp         1 P         0.353300
      7 H1          29.5300    43.5430    27.5760 h4         1 P         0.025100
      8 H2          27.3660    44.3490    27.7140 ha         1 P         0.144000
      9 H3          26.5440    45.7270    25.9670 ha         1 P         0.139000
     10 H4          27.9910    46.3240    24.2360 ha         1 P         0.146000
     11 C6          30.6050    45.6910    23.9250 cp         1 P         0.353300
     12 C7          30.3500    46.5340    22.8640 ca         1 P        -0.233300
     13 C8          31.3650    46.8440    21.9790 ca         1 P        -0.095000
     14 C9          32.6160    46.3170    22.2090 ca         1 P        -0.242300
     15 C10         32.8090    45.4890    23.2930 ca         1 P         0.393200
     16 N2          31.8190    45.1610    24.1170 nb         1 P        -0.631000
     17 H5          29.4820    46.8990    22.7390 ha         1 P         0.146000
     18 H6          31.2050    47.4080    21.2310 ha         1 P         0.139000
     19 H7          33.3390    46.5210    21.6290 ha         1 P         0.144000
     20 H8          33.6760    45.1380    23.4560 h4         1 P         0.025100
@<TRIPOS>BOND
     1     1     2 ar  
     2     1     6 ar  
     3     2     3 ar  
     4     2     7 1   
     5     3     4 ar  
     6     3     8 1   
     7     4     5 ar  
     8     4     9 1   
     9     5     6 ar  
    10     5    10 1   
    11     6    11 1   
    12    11    12 ar  
    13    11    16 ar  
    14    12    13 ar  
    15    12    17 1   
    16    13    14 ar  
    17    13    18 1   
    18    14    15 ar  
    19    14    19 1   
    20    15    16 ar  
    21    15    20 1   
@<TRIPOS>SUBSTRUCTURE
     1 P           1 TEMP              0 ****  ****    0 ROOT
